60
C60
C 2.898220 0.689419 1.861392
C 3.153190 1.409387 0.640915
C 2.898178 -0.695015 1.859374
C 3.396728 0.718875 -0.534050
C 2.802856 1.167088 -1.766822
C 2.303961 2.575788 0.629947
C 1.734803 3.003234 -0.557492
C 1.988409 2.286568 -1.776962
C 0.926584 -0.727201 3.309437
C 0.928286 0.712562 3.312144
C 1.892700 -1.417603 2.597661
C 1.893682 1.406593 2.602925
C 1.526410 2.572434 1.841850
C -0.443246 1.155821 3.287456
C -0.795632 2.276217 2.554518
C 0.209280 2.998206 1.818439
C 0.207273 -3.004543 1.808180
C -0.791843 -2.290807 2.542625
C 1.524932 -2.580425 1.831869
C -0.442152 -1.173388 3.281374
C -1.289445 -0.009253 3.267568
C -1.988409 -2.286568 1.776962
C -2.802856 -1.167088 1.766822
C -2.451846 -0.006961 2.515583
C 1.733086 -3.002338 -0.567568
C 0.360928 -3.443661 -0.592184
C 2.303454 -2.578512 0.620587
C -0.387170 -3.444102 0.572724
C -1.734803 -3.003234 0.557492
C -0.209280 -2.998206 -1.818439
C -1.526410 -2.572434 -1.841850
C -2.303961 -2.575788 -0.629947
C 3.396270 -0.720892 -0.534246
C 2.802062 -1.162124 -1.771347
C 3.151270 -1.414812 0.638405
C 1.986140 -2.280461 -1.787316
C 0.795632 -2.276217 -2.554518
C 2.434842 0.004206 -2.532051
C 1.267401 0.005175 -3.276190
C 0.443246 -1.155821 -3.287456
C -2.898220 -0.689419 -1.861392
C -1.893682 -1.406593 -2.602925
C -0.928286 -0.712562 -3.312144
C -2.898178 0.695015 -1.859374
C -3.396270 0.720892 0.534246
C -3.396728 -0.718875 0.534050
C -3.153190 -1.409387 -0.640915
C -3.151270 1.414812 -0.638405
C -1.733086 3.002338 0.567568
C -1.986140 2.280461 1.787316
C -2.802062 1.162124 1.771347
C -2.303454 2.578512 -0.620587
C -0.207273 3.004543 -1.808180
C 0.364667 3.444821 -0.583081
C -0.383370 3.442995 0.581865
C -1.524932 2.580425 -1.831869
C -0.926584 0.727201 -3.309437
C 0.442152 1.173388 -3.281374
C 0.791843 2.290807 -2.542625
C -1.892700 1.417603 -2.597661