60
C60
C -2.149361 2.280317 -1.587500
C -2.661102 2.280317 -0.241748
C -2.303766 1.159280 -2.385055
C -3.305707 1.160519 0.255442
C -3.043278 0.718708 1.600522
C -1.726348 3.002528 0.586772
C -1.476782 2.574228 1.879419
C -2.146605 1.412229 2.395297
C -0.016111 1.401697 -3.220984
C 0.143059 2.568281 -2.392325
C -1.215936 0.710993 -3.218034
C -0.901482 2.998706 -1.592120
C -0.640045 3.445057 -0.248346
C 1.490623 2.565652 -1.880220
C 1.740889 2.993938 -0.587703
C 0.654163 3.442767 0.243265
C -0.014011 -1.419189 -3.213325
C 1.226299 -0.705965 -3.215207
C -1.214185 -0.729088 -3.214644
C 1.228972 0.678459 -3.220105
C 2.160821 1.397823 -2.390962
C 2.146605 -1.412229 -2.395297
C 3.043278 -0.718708 -1.600522
C 3.052307 0.705908 -1.588985
C -2.145494 -2.289843 -1.578996
C -0.895627 -3.008187 -1.577471
C -2.301395 -1.172207 -2.381022
C 0.149525 -2.580745 -2.378477
C 1.476782 -2.574228 -1.879419
C -0.654163 -3.442767 -0.243265
C 0.640045 -3.445057 0.248346
C 1.726348 -3.002528 -0.586772
C -3.465344 -0.004421 -0.575437
C -3.302688 -1.168142 0.259718
C -2.973876 -0.006177 -1.869700
C -2.654991 -2.288399 -0.232394
C -1.740889 -2.993938 0.587703
C -3.041140 -0.721185 1.603470
C -2.142760 -1.411290 2.399291
C -1.490623 -2.565652 1.880220
C 2.149361 -2.280317 1.587500
C 0.901482 -2.998706 1.592120
C -0.143059 -2.568281 2.392325
C 2.303766 -1.159280 2.385055
C 3.465344 0.004421 0.575437
C 3.305707 -1.160519 -0.255442
C 2.661102 -2.280317 0.241748
C 2.973876 0.006177 1.869700
C 2.145494 2.289843 1.578996
C 2.654991 2.288399 0.232394
C 3.302688 1.168142 -0.259718
C 2.301395 1.172207 2.381022
C 0.014011 1.419189 3.213325
C -0.130990 2.570123 2.391039
C 0.913961 2.996481 1.589192
C 1.214185 0.729088 3.214644
C 0.016111 -1.401697 3.220984
C -1.228972 -0.678459 3.220105
C -1.226299 0.705965 3.215207
C 1.215936 -0.710993 3.218034