60
C60
C 2.985956 -0.001500 -1.850357
C 3.153428 1.163357 -1.020906
C 2.039113 0.000249 -2.860380
C 2.367997 2.283810 -1.231486
C 1.823300 3.000620 -0.107744
C 3.424277 0.713909 0.323132
C 2.898451 1.405912 1.400767
C 2.083788 2.569261 1.181728
C 1.377256 -2.284920 -2.285182
C 2.363199 -2.286355 -1.235972
C 1.218549 -1.164083 -3.082175
C 3.151079 -1.168132 -1.022703
C 3.421977 -0.725985 0.320587
C 1.813536 -3.006283 -0.114472
C 2.073621 -2.579775 1.176694
C 2.894299 -1.417607 1.397562
C -1.212823 -1.409741 -2.980175
C -1.049513 -2.567479 -2.155534
C -0.103958 -0.718112 -3.437043
C 0.220199 -3.000450 -1.813440
C 0.489570 -3.446465 -0.471122
C -2.083788 -2.569261 -1.181728
C -1.823300 -3.000620 0.107744
C -0.519648 -3.441309 0.476566
C -1.210351 1.413782 -2.979266
C -2.364829 0.693503 -2.503276
C -0.101800 0.721785 -3.436338
C -2.365568 -0.690932 -2.503288
C -2.898451 -1.405912 -1.400767
C -2.894299 1.417607 -1.397562
C -3.421977 0.725985 -0.320587
C -3.424277 -0.713909 -0.323132
C 1.383805 2.283804 -2.282340
C 0.229413 3.004123 -1.806202
C 1.221404 1.164582 -3.080856
C -1.042465 2.576991 -2.147588
C -2.073621 2.579775 -1.176694
C 0.500823 3.445986 -0.462722
C -0.509302 3.441817 0.484004
C -1.813536 3.006283 0.114472
C -2.985956 0.001500 1.850357
C -3.151079 1.168132 1.022703
C -2.363199 2.286355 1.235972
C -2.039113 -0.000249 2.860380
C -1.383805 -2.283804 2.282340
C -2.367997 -2.283810 1.231486
C -3.153428 -1.163357 1.020906
C -1.221404 -1.164582 3.080856
C 1.210351 -1.413782 2.979266
C 1.042465 -2.576991 2.147588
C -0.229413 -3.004123 1.806202
C 0.101800 -0.721785 3.436338
C 1.212823 1.409741 2.980175
C 2.348147 0.687496 2.520577
C 2.346514 -0.696938 2.519504
C 0.103958 0.718112 3.437043
C -1.377256 2.284920 2.285182
C -0.220199 3.000450 1.813440
C 1.049513 2.567479 2.155534
C -1.218549 1.164083 3.082175