60
C60
C 0.689419 0.802025 3.349808
C 1.409387 -0.434286 3.188225
C -0.695015 0.800133 3.349104
C 0.718875 -1.623860 3.030850
C 1.167088 -2.591976 2.063812
C 2.575788 -0.164711 2.382843
C 3.003234 -1.098174 1.454082
C 2.286568 -2.333085 1.291541
C -0.727201 2.819047 1.965682
C 0.712562 2.821041 1.968181
C -1.417603 1.828592 2.643181
C 1.406593 1.833238 2.645843
C 2.572434 1.235763 2.048226
C 1.155821 3.249829 0.665165
C 2.276217 2.674010 0.090877
C 2.998206 1.647823 0.796993
C -3.004543 1.638800 0.791716
C -2.290807 2.661534 0.090533
C -2.580425 1.226827 2.043540
C -1.173388 3.243727 0.664194
C -0.009253 3.509984 -0.140297
C -2.286568 2.333085 -1.291541
C -1.167088 2.591976 -2.063812
C -0.006961 3.183187 -1.485607
C -3.002338 -1.107121 1.449138
C -3.443661 -0.678059 0.145556
C -2.578512 -0.173381 2.379279
C -3.444102 0.668337 -0.176746
C -3.003234 1.098174 -1.454082
C -2.998206 -1.647823 -0.796993
C -2.572434 -1.235763 -2.048226
C -2.575788 0.164711 -2.382843
C -0.720892 -1.623894 3.030352
C -1.162124 -2.595987 2.061571
C -1.414812 -0.436022 3.185584
C -2.280461 -2.342112 1.285987
C -2.276217 -2.674010 -0.090877
C 0.004206 -3.193129 1.464125
C 0.005175 -3.510858 0.116642
C -1.155821 -3.249829 -0.665165
C -0.689419 -0.802025 -3.349808
C -1.406593 -1.833238 -2.645843
C -0.712562 -2.821041 -1.968181
C 0.695015 -0.800133 -3.349104
C 0.720892 1.623894 -3.030352
C -0.718875 1.623860 -3.030850
C -1.409387 0.434286 -3.188225
C 1.414812 0.436022 -3.185584
C 3.002338 1.107121 -1.449138
C 2.280461 2.342112 -1.285987
C 1.162124 2.595987 -2.061571
C 2.578512 0.173381 -2.379279
C 3.004543 -1.638800 -0.791716
C 3.444821 -0.670697 0.152086
C 3.442995 0.675715 -0.170145
C 2.580425 -1.226827 -2.043540
C 0.727201 -2.819047 -1.965682
C 1.173388 -3.243727 -0.664194
C 2.290807 -2.661534 -0.090533
C 1.417603 -1.828592 -2.643181