12
H6 C6
C -1.323063 0.442969 0.000000
C -0.277909 1.367290 0.000000
C 1.045154 0.924322 0.000000
C 1.323063 -0.442969 0.000000
C 0.277909 -1.367290 -0.000000
C -1.045154 -0.924321 0.000000
H -2.353932 0.788110 0.000000
H -0.494443 2.432620 0.000000
H 1.859489 1.644510 0.000000
H 2.353932 -0.788110 0.000000
H 0.494443 -2.432620 -0.000000
H -1.859489 -1.644510 0.000000